1372
14 14 14
Ar 0 0 0
Ar 1 0 1
Ar 1 1 0
Ar 0 1 1
Ar 0 0 2
Ar 1 0 3
Ar 1 1 2
Ar 0 1 3
Ar 0 0 4
Ar 1 0 5
Ar 1 1 4
Ar 0 1 5
Ar 0 0 6
Ar 1 0 7
Ar 1 1 6
Ar 0 1 7
Ar 0 0 8
Ar 1 0 9
Ar 1 1 8
Ar 0 1 9
Ar 0 0 10
Ar 1 0 11
Ar 1 1 10
Ar 0 1 11
Ar 0 0 12
Ar 1 0 13
Ar 1 1 12
Ar 0 1 13
Ar 0 2 0
Ar 1 2 1
Ar 1 3 0
Ar 0 3 1
Ar 0 2 2
Ar 1 2 3
Ar 1 3 2
Ar 0 3 3
Ar 0 2 4
Ar 1 2 5
Ar 1 3 4
Ar 0 3 5
Ar 0 2 6
Ar 1 2 7
Ar 1 3 6
Ar 0 3 7
Ar 0 2 8
Ar 1 2 9
Ar 1 3 8
Ar 0 3 9
Ar 0 2 10
Ar 1 2 11
Ar 1 3 10
Ar 0 3 11
Ar 0 2 12
Ar 1 2 13
Ar 1 3 12
Ar 0 3 13
Ar 0 4 0
Ar 1 4 1
Ar 1 5 0
Ar 0 5 1
Ar 0 4 2
Ar 1 4 3
Ar 1 5 2
Ar 0 5 3
Ar 0 4 4
Ar 1 4 5
Ar 1 5 4
Ar 0 5 5
Ar 0 4 6
Ar 1 4 7
Ar 1 5 6
Ar 0 5 7
Ar 0 4 8
Ar 1 4 9
Ar 1 5 8
Ar 0 5 9
Ar 0 4 10
Ar 1 4 11
Ar 1 5 10
Ar 0 5 11
Ar 0 4 12
Ar 1 4 13
Ar 1 5 12
Ar 0 5 13
Ar 0 6 0
Ar 1 6 1
Ar 1 7 0
Ar 0 7 1
Ar 0 6 2
Ar 1 6 3
Ar 1 7 2
Ar 0 7 3
Ar 0 6 4
Ar 1 6 5
Ar 1 7 4
Ar 0 7 5
Ar 0 6 6
Ar 1 6 7
Ar 1 7 6
Ar 0 7 7
Ar 0 6 8
Ar 1 6 9
Ar 1 7 8
Ar 0 7 9
Ar 0 6 10
Ar 1 6 11
Ar 1 7 10
Ar 0 7 11
Ar 0 6 12
Ar 1 6 13
Ar 1 7 12
Ar 0 7 13
Ar 0 8 0
Ar 1 8 1
Ar 1 9 0
Ar 0 9 1
Ar 0 8 2
Ar 1 8 3
Ar 1 9 2
Ar 0 9 3
Ar 0 8 4
Ar 1 8 5
Ar 1 9 4
Ar 0 9 5
Ar 0 8 6
Ar 1 8 7
Ar 1 9 6
Ar 0 9 7
Ar 0 8 8
Ar 1 8 9
Ar 1 9 8
Ar 0 9 9
Ar 0 8 10
Ar 1 8 11
Ar 1 9 10
Ar 0 9 11
Ar 0 8 12
Ar 1 8 13
Ar 1 9 12
Ar 0 9 13
Ar 0 10 0
Ar 1 10 1
Ar 1 11 0
Ar 0 11 1
Ar 0 10 2
Ar 1 10 3
Ar 1 11 2
Ar 0 11 3
Ar 0 10 4
Ar 1 10 5
Ar 1 11 4
Ar 0 11 5
Ar 0 10 6
Ar 1 10 7
Ar 1 11 6
Ar 0 11 7
Ar 0 10 8
Ar 1 10 9
Ar 1 11 8
Ar 0 11 9
Ar 0 10 10
Ar 1 10 11
Ar 1 11 10
Ar 0 11 11
Ar 0 10 12
Ar 1 10 13
Ar 1 11 12
Ar 0 11 13
Ar 0 12 0
Ar 1 12 1
Ar 1 13 0
Ar 0 13 1
Ar 0 12 2
Ar 1 12 3
Ar 1 13 2
Ar 0 13 3
Ar 0 12 4
Ar 1 12 5
Ar 1 13 4
Ar 0 13 5
Ar 0 12 6
Ar 1 12 7
Ar 1 13 6
Ar 0 13 7
Ar 0 12 8
Ar 1 12 9
Ar 1 13 8
Ar 0 13 9
Ar 0 12 10
Ar 1 12 11
Ar 1 13 10
Ar 0 13 11
Ar 0 12 12
Ar 1 12 13
Ar 1 13 12
Ar 0 13 13
Ar 2 0 0
Ar 3 0 1
Ar 3 1 0
Ar 2 1 1
Ar 2 0 2
Ar 3 0 3
Ar 3 1 2
Ar 2 1 3
Ar 2 0 4
Ar 3 0 5
Ar 3 1 4
Ar 2 1 5
Ar 2 0 6
Ar 3 0 7
Ar 3 1 6
Ar 2 1 7
Ar 2 0 8
Ar 3 0 9
Ar 3 1 8
Ar 2 1 9
Ar 2 0 10
Ar 3 0 11
Ar 3 1 10
Ar 2 1 11
Ar 2 0 12
Ar 3 0 13
Ar 3 1 12
Ar 2 1 13
Ar 2 2 0
Ar 3 2 1
Ar 3 3 0
Ar 2 3 1
Ar 2 2 2
Ar 3 2 3
Ar 3 3 2
Ar 2 3 3
Ar 2 2 4
Ar 3 2 5
Ar 3 3 4
Ar 2 3 5
Ar 2 2 6
Ar 3 2 7
Ar 3 3 6
Ar 2 3 7
Ar 2 2 8
Ar 3 2 9
Ar 3 3 8
Ar 2 3 9
Ar 2 2 10
Ar 3 2 11
Ar 3 3 10
Ar 2 3 11
Ar 2 2 12
Ar 3 2 13
Ar 3 3 12
Ar 2 3 13
Ar 2 4 0
Ar 3 4 1
Ar 3 5 0
Ar 2 5 1
Ar 2 4 2
Ar 3 4 3
Ar 3 5 2
Ar 2 5 3
Ar 2 4 4
Ar 3 4 5
Ar 3 5 4
Ar 2 5 5
Ar 2 4 6
Ar 3 4 7
Ar 3 5 6
Ar 2 5 7
Ar 2 4 8
Ar 3 4 9
Ar 3 5 8
Ar 2 5 9
Ar 2 4 10
Ar 3 4 11
Ar 3 5 10
Ar 2 5 11
Ar 2 4 12
Ar 3 4 13
Ar 3 5 12
Ar 2 5 13
Ar 2 6 0
Ar 3 6 1
Ar 3 7 0
Ar 2 7 1
Ar 2 6 2
Ar 3 6 3
Ar 3 7 2
Ar 2 7 3
Ar 2 6 4
Ar 3 6 5
Ar 3 7 4
Ar 2 7 5
Ar 2 6 6
Ar 3 6 7
Ar 3 7 6
Ar 2 7 7
Ar 2 6 8
Ar 3 6 9
Ar 3 7 8
Ar 2 7 9
Ar 2 6 10
Ar 3 6 11
Ar 3 7 10
Ar 2 7 11
Ar 2 6 12
Ar 3 6 13
Ar 3 7 12
Ar 2 7 13
Ar 2 8 0
Ar 3 8 1
Ar 3 9 0
Ar 2 9 1
Ar 2 8 2
Ar 3 8 3
Ar 3 9 2
Ar 2 9 3
Ar 2 8 4
Ar 3 8 5
Ar 3 9 4
Ar 2 9 5
Ar 2 8 6
Ar 3 8 7
Ar 3 9 6
Ar 2 9 7
Ar 2 8 8
Ar 3 8 9
Ar 3 9 8
Ar 2 9 9
Ar 2 8 10
Ar 3 8 11
Ar 3 9 10
Ar 2 9 11
Ar 2 8 12
Ar 3 8 13
Ar 3 9 12
Ar 2 9 13
Ar 2 10 0
Ar 3 10 1
Ar 3 11 0
Ar 2 11 1
Ar 2 10 2
Ar 3 10 3
Ar 3 11 2
Ar 2 11 3
Ar 2 10 4
Ar 3 10 5
Ar 3 11 4
Ar 2 11 5
Ar 2 10 6
Ar 3 10 7
Ar 3 11 6
Ar 2 11 7
Ar 2 10 8
Ar 3 10 9
Ar 3 11 8
Ar 2 11 9
Ar 2 10 10
Ar 3 10 11
Ar 3 11 10
Ar 2 11 11
Ar 2 10 12
Ar 3 10 13
Ar 3 11 12
Ar 2 11 13
Ar 2 12 0
Ar 3 12 1
Ar 3 13 0
Ar 2 13 1
Ar 2 12 2
Ar 3 12 3
Ar 3 13 2
Ar 2 13 3
Ar 2 12 4
Ar 3 12 5
Ar 3 13 4
Ar 2 13 5
Ar 2 12 6
Ar 3 12 7
Ar 3 13 6
Ar 2 13 7
Ar 2 12 8
Ar 3 12 9
Ar 3 13 8
Ar 2 13 9
Ar 2 12 10
Ar 3 12 11
Ar 3 13 10
Ar 2 13 11
Ar 2 12 12
Ar 3 12 13
Ar 3 13 12
Ar 2 13 13
Ar 4 0 0
Ar 5 0 1
Ar 5 1 0
Ar 4 1 1
Ar 4 0 2
Ar 5 0 3
Ar 5 1 2
Ar 4 1 3
Ar 4 0 4
Ar 5 0 5
Ar 5 1 4
Ar 4 1 5
Ar 4 0 6
Ar 5 0 7
Ar 5 1 6
Ar 4 1 7
Ar 4 0 8
Ar 5 0 9
Ar 5 1 8
Ar 4 1 9
Ar 4 0 10
Ar 5 0 11
Ar 5 1 10
Ar 4 1 11
Ar 4 0 12
Ar 5 0 13
Ar 5 1 12
Ar 4 1 13
Ar 4 2 0
Ar 5 2 1
Ar 5 3 0
Ar 4 3 1
Ar 4 2 2
Ar 5 2 3
Ar 5 3 2
Ar 4 3 3
Ar 4 2 4
Ar 5 2 5
Ar 5 3 4
Ar 4 3 5
Ar 4 2 6
Ar 5 2 7
Ar 5 3 6
Ar 4 3 7
Ar 4 2 8
Ar 5 2 9
Ar 5 3 8
Ar 4 3 9
Ar 4 2 10
Ar 5 2 11
Ar 5 3 10
Ar 4 3 11
Ar 4 2 12
Ar 5 2 13
Ar 5 3 12
Ar 4 3 13
Ar 4 4 0
Ar 5 4 1
Ar 5 5 0
Ar 4 5 1
Ar 4 4 2
Ar 5 4 3
Ar 5 5 2
Ar 4 5 3
Ar 4 4 4
Ar 5 4 5
Ar 5 5 4
Ar 4 5 5
Ar 4 4 6
Ar 5 4 7
Ar 5 5 6
Ar 4 5 7
Ar 4 4 8
Ar 5 4 9
Ar 5 5 8
Ar 4 5 9
Ar 4 4 10
Ar 5 4 11
Ar 5 5 10
Ar 4 5 11
Ar 4 4 12
Ar 5 4 13
Ar 5 5 12
Ar 4 5 13
Ar 4 6 0
Ar 5 6 1
Ar 5 7 0
Ar 4 7 1
Ar 4 6 2
Ar 5 6 3
Ar 5 7 2
Ar 4 7 3
Ar 4 6 4
Ar 5 6 5
Ar 5 7 4
Ar 4 7 5
Ar 4 6 6
Ar 5 6 7
Ar 5 7 6
Ar 4 7 7
Ar 4 6 8
Ar 5 6 9
Ar 5 7 8
Ar 4 7 9
Ar 4 6 10
Ar 5 6 11
Ar 5 7 10
Ar 4 7 11
Ar 4 6 12
Ar 5 6 13
Ar 5 7 12
Ar 4 7 13
Ar 4 8 0
Ar 5 8 1
Ar 5 9 0
Ar 4 9 1
Ar 4 8 2
Ar 5 8 3
Ar 5 9 2
Ar 4 9 3
Ar 4 8 4
Ar 5 8 5
Ar 5 9 4
Ar 4 9 5
Ar 4 8 6
Ar 5 8 7
Ar 5 9 6
Ar 4 9 7
Ar 4 8 8
Ar 5 8 9
Ar 5 9 8
Ar 4 9 9
Ar 4 8 10
Ar 5 8 11
Ar 5 9 10
Ar 4 9 11
Ar 4 8 12
Ar 5 8 13
Ar 5 9 12
Ar 4 9 13
Ar 4 10 0
Ar 5 10 1
Ar 5 11 0
Ar 4 11 1
Ar 4 10 2
Ar 5 10 3
Ar 5 11 2
Ar 4 11 3
Ar 4 10 4
Ar 5 10 5
Ar 5 11 4
Ar 4 11 5
Ar 4 10 6
Ar 5 10 7
Ar 5 11 6
Ar 4 11 7
Ar 4 10 8
Ar 5 10 9
Ar 5 11 8
Ar 4 11 9
Ar 4 10 10
Ar 5 10 11
Ar 5 11 10
Ar 4 11 11
Ar 4 10 12
Ar 5 10 13
Ar 5 11 12
Ar 4 11 13
Ar 4 12 0
Ar 5 12 1
Ar 5 13 0
Ar 4 13 1
Ar 4 12 2
Ar 5 12 3
Ar 5 13 2
Ar 4 13 3
Ar 4 12 4
Ar 5 12 5
Ar 5 13 4
Ar 4 13 5
Ar 4 12 6
Ar 5 12 7
Ar 5 13 6
Ar 4 13 7
Ar 4 12 8
Ar 5 12 9
Ar 5 13 8
Ar 4 13 9
Ar 4 12 10
Ar 5 12 11
Ar 5 13 10
Ar 4 13 11
Ar 4 12 12
Ar 5 12 13
Ar 5 13 12
Ar 4 13 13
Ar 6 0 0
Ar 7 0 1
Ar 7 1 0
Ar 6 1 1
Ar 6 0 2
Ar 7 0 3
Ar 7 1 2
Ar 6 1 3
Ar 6 0 4
Ar 7 0 5
Ar 7 1 4
Ar 6 1 5
Ar 6 0 6
Ar 7 0 7
Ar 7 1 6
Ar 6 1 7
Ar 6 0 8
Ar 7 0 9
Ar 7 1 8
Ar 6 1 9
Ar 6 0 10
Ar 7 0 11
Ar 7 1 10
Ar 6 1 11
Ar 6 0 12
Ar 7 0 13
Ar 7 1 12
Ar 6 1 13
Ar 6 2 0
Ar 7 2 1
Ar 7 3 0
Ar 6 3 1
Ar 6 2 2
Ar 7 2 3
Ar 7 3 2
Ar 6 3 3
Ar 6 2 4
Ar 7 2 5
Ar 7 3 4
Ar 6 3 5
Ar 6 2 6
Ar 7 2 7
Ar 7 3 6
Ar 6 3 7
Ar 6 2 8
Ar 7 2 9
Ar 7 3 8
Ar 6 3 9
Ar 6 2 10
Ar 7 2 11
Ar 7 3 10
Ar 6 3 11
Ar 6 2 12
Ar 7 2 13
Ar 7 3 12
Ar 6 3 13
Ar 6 4 0
Ar 7 4 1
Ar 7 5 0
Ar 6 5 1
Ar 6 4 2
Ar 7 4 3
Ar 7 5 2
Ar 6 5 3
Ar 6 4 4
Ar 7 4 5
Ar 7 5 4
Ar 6 5 5
Ar 6 4 6
Ar 7 4 7
Ar 7 5 6
Ar 6 5 7
Ar 6 4 8
Ar 7 4 9
Ar 7 5 8
Ar 6 5 9
Ar 6 4 10
Ar 7 4 11
Ar 7 5 10
Ar 6 5 11
Ar 6 4 12
Ar 7 4 13
Ar 7 5 12
Ar 6 5 13
Ar 6 6 0
Ar 7 6 1
Ar 7 7 0
Ar 6 7 1
Ar 6 6 2
Ar 7 6 3
Ar 7 7 2
Ar 6 7 3
Ar 6 6 4
Ar 7 6 5
Ar 7 7 4
Ar 6 7 5
Ar 6 6 6
Ar 7 6 7
Ar 7 7 6
Ar 6 7 7
Ar 6 6 8
Ar 7 6 9
Ar 7 7 8
Ar 6 7 9
Ar 6 6 10
Ar 7 6 11
Ar 7 7 10
Ar 6 7 11
Ar 6 6 12
Ar 7 6 13
Ar 7 7 12
Ar 6 7 13
Ar 6 8 0
Ar 7 8 1
Ar 7 9 0
Ar 6 9 1
Ar 6 8 2
Ar 7 8 3
Ar 7 9 2
Ar 6 9 3
Ar 6 8 4
Ar 7 8 5
Ar 7 9 4
Ar 6 9 5
Ar 6 8 6
Ar 7 8 7
Ar 7 9 6
Ar 6 9 7
Ar 6 8 8
Ar 7 8 9
Ar 7 9 8
Ar 6 9 9
Ar 6 8 10
Ar 7 8 11
Ar 7 9 10
Ar 6 9 11
Ar 6 8 12
Ar 7 8 13
Ar 7 9 12
Ar 6 9 13
Ar 6 10 0
Ar 7 10 1
Ar 7 11 0
Ar 6 11 1
Ar 6 10 2
Ar 7 10 3
Ar 7 11 2
Ar 6 11 3
Ar 6 10 4
Ar 7 10 5
Ar 7 11 4
Ar 6 11 5
Ar 6 10 6
Ar 7 10 7
Ar 7 11 6
Ar 6 11 7
Ar 6 10 8
Ar 7 10 9
Ar 7 11 8
Ar 6 11 9
Ar 6 10 10
Ar 7 10 11
Ar 7 11 10
Ar 6 11 11
Ar 6 10 12
Ar 7 10 13
Ar 7 11 12
Ar 6 11 13
Ar 6 12 0
Ar 7 12 1
Ar 7 13 0
Ar 6 13 1
Ar 6 12 2
Ar 7 12 3
Ar 7 13 2
Ar 6 13 3
Ar 6 12 4
Ar 7 12 5
Ar 7 13 4
Ar 6 13 5
Ar 6 12 6
Ar 7 12 7
Ar 7 13 6
Ar 6 13 7
Ar 6 12 8
Ar 7 12 9
Ar 7 13 8
Ar 6 13 9
Ar 6 12 10
Ar 7 12 11
Ar 7 13 10
Ar 6 13 11
Ar 6 12 12
Ar 7 12 13
Ar 7 13 12
Ar 6 13 13
Ar 8 0 0
Ar 9 0 1
Ar 9 1 0
Ar 8 1 1
Ar 8 0 2
Ar 9 0 3
Ar 9 1 2
Ar 8 1 3
Ar 8 0 4
Ar 9 0 5
Ar 9 1 4
Ar 8 1 5
Ar 8 0 6
Ar 9 0 7
Ar 9 1 6
Ar 8 1 7
Ar 8 0 8
Ar 9 0 9
Ar 9 1 8
Ar 8 1 9
Ar 8 0 10
Ar 9 0 11
Ar 9 1 10
Ar 8 1 11
Ar 8 0 12
Ar 9 0 13
Ar 9 1 12
Ar 8 1 13
Ar 8 2 0
Ar 9 2 1
Ar 9 3 0
Ar 8 3 1
Ar 8 2 2
Ar 9 2 3
Ar 9 3 2
Ar 8 3 3
Ar 8 2 4
Ar 9 2 5
Ar 9 3 4
Ar 8 3 5
Ar 8 2 6
Ar 9 2 7
Ar 9 3 6
Ar 8 3 7
Ar 8 2 8
Ar 9 2 9
Ar 9 3 8
Ar 8 3 9
Ar 8 2 10
Ar 9 2 11
Ar 9 3 10
Ar 8 3 11
Ar 8 2 12
Ar 9 2 13
Ar 9 3 12
Ar 8 3 13
Ar 8 4 0
Ar 9 4 1
Ar 9 5 0
Ar 8 5 1
Ar 8 4 2
Ar 9 4 3
Ar 9 5 2
Ar 8 5 3
Ar 8 4 4
Ar 9 4 5
Ar 9 5 4
Ar 8 5 5
Ar 8 4 6
Ar 9 4 7
Ar 9 5 6
Ar 8 5 7
Ar 8 4 8
Ar 9 4 9
Ar 9 5 8
Ar 8 5 9
Ar 8 4 10
Ar 9 4 11
Ar 9 5 10
Ar 8 5 11
Ar 8 4 12
Ar 9 4 13
Ar 9 5 12
Ar 8 5 13
Ar 8 6 0
Ar 9 6 1
Ar 9 7 0
Ar 8 7 1
Ar 8 6 2
Ar 9 6 3
Ar 9 7 2
Ar 8 7 3
Ar 8 6 4
Ar 9 6 5
Ar 9 7 4
Ar 8 7 5
Ar 8 6 6
Ar 9 6 7
Ar 9 7 6
Ar 8 7 7
Ar 8 6 8
Ar 9 6 9
Ar 9 7 8
Ar 8 7 9
Ar 8 6 10
Ar 9 6 11
Ar 9 7 10
Ar 8 7 11
Ar 8 6 12
Ar 9 6 13
Ar 9 7 12
Ar 8 7 13
Ar 8 8 0
Ar 9 8 1
Ar 9 9 0
Ar 8 9 1
Ar 8 8 2
Ar 9 8 3
Ar 9 9 2
Ar 8 9 3
Ar 8 8 4
Ar 9 8 5
Ar 9 9 4
Ar 8 9 5
Ar 8 8 6
Ar 9 8 7
Ar 9 9 6
Ar 8 9 7
Ar 8 8 8
Ar 9 8 9
Ar 9 9 8
Ar 8 9 9
Ar 8 8 10
Ar 9 8 11
Ar 9 9 10
Ar 8 9 11
Ar 8 8 12
Ar 9 8 13
Ar 9 9 12
Ar 8 9 13
Ar 8 10 0
Ar 9 10 1
Ar 9 11 0
Ar 8 11 1
Ar 8 10 2
Ar 9 10 3
Ar 9 11 2
Ar 8 11 3
Ar 8 10 4
Ar 9 10 5
Ar 9 11 4
Ar 8 11 5
Ar 8 10 6
Ar 9 10 7
Ar 9 11 6
Ar 8 11 7
Ar 8 10 8
Ar 9 10 9
Ar 9 11 8
Ar 8 11 9
Ar 8 10 10
Ar 9 10 11
Ar 9 11 10
Ar 8 11 11
Ar 8 10 12
Ar 9 10 13
Ar 9 11 12
Ar 8 11 13
Ar 8 12 0
Ar 9 12 1
Ar 9 13 0
Ar 8 13 1
Ar 8 12 2
Ar 9 12 3
Ar 9 13 2
Ar 8 13 3
Ar 8 12 4
Ar 9 12 5
Ar 9 13 4
Ar 8 13 5
Ar 8 12 6
Ar 9 12 7
Ar 9 13 6
Ar 8 13 7
Ar 8 12 8
Ar 9 12 9
Ar 9 13 8
Ar 8 13 9
Ar 8 12 10
Ar 9 12 11
Ar 9 13 10
Ar 8 13 11
Ar 8 12 12
Ar 9 12 13
Ar 9 13 12
Ar 8 13 13
Ar 10 0 0
Ar 11 0 1
Ar 11 1 0
Ar 10 1 1
Ar 10 0 2
Ar 11 0 3
Ar 11 1 2
Ar 10 1 3
Ar 10 0 4
Ar 11 0 5
Ar 11 1 4
Ar 10 1 5
Ar 10 0 6
Ar 11 0 7
Ar 11 1 6
Ar 10 1 7
Ar 10 0 8
Ar 11 0 9
Ar 11 1 8
Ar 10 1 9
Ar 10 0 10
Ar 11 0 11
Ar 11 1 10
Ar 10 1 11
Ar 10 0 12
Ar 11 0 13
Ar 11 1 12
Ar 10 1 13
Ar 10 2 0
Ar 11 2 1
Ar 11 3 0
Ar 10 3 1
Ar 10 2 2
Ar 11 2 3
Ar 11 3 2
Ar 10 3 3
Ar 10 2 4
Ar 11 2 5
Ar 11 3 4
Ar 10 3 5
Ar 10 2 6
Ar 11 2 7
Ar 11 3 6
Ar 10 3 7
Ar 10 2 8
Ar 11 2 9
Ar 11 3 8
Ar 10 3 9
Ar 10 2 10
Ar 11 2 11
Ar 11 3 10
Ar 10 3 11
Ar 10 2 12
Ar 11 2 13
Ar 11 3 12
Ar 10 3 13
Ar 10 4 0
Ar 11 4 1
Ar 11 5 0
Ar 10 5 1
Ar 10 4 2
Ar 11 4 3
Ar 11 5 2
Ar 10 5 3
Ar 10 4 4
Ar 11 4 5
Ar 11 5 4
Ar 10 5 5
Ar 10 4 6
Ar 11 4 7
Ar 11 5 6
Ar 10 5 7
Ar 10 4 8
Ar 11 4 9
Ar 11 5 8
Ar 10 5 9
Ar 10 4 10
Ar 11 4 11
Ar 11 5 10
Ar 10 5 11
Ar 10 4 12
Ar 11 4 13
Ar 11 5 12
Ar 10 5 13
Ar 10 6 0
Ar 11 6 1
Ar 11 7 0
Ar 10 7 1
Ar 10 6 2
Ar 11 6 3
Ar 11 7 2
Ar 10 7 3
Ar 10 6 4
Ar 11 6 5
Ar 11 7 4
Ar 10 7 5
Ar 10 6 6
Ar 11 6 7
Ar 11 7 6
Ar 10 7 7
Ar 10 6 8
Ar 11 6 9
Ar 11 7 8
Ar 10 7 9
Ar 10 6 10
Ar 11 6 11
Ar 11 7 10
Ar 10 7 11
Ar 10 6 12
Ar 11 6 13
Ar 11 7 12
Ar 10 7 13
Ar 10 8 0
Ar 11 8 1
Ar 11 9 0
Ar 10 9 1
Ar 10 8 2
Ar 11 8 3
Ar 11 9 2
Ar 10 9 3
Ar 10 8 4
Ar 11 8 5
Ar 11 9 4
Ar 10 9 5
Ar 10 8 6
Ar 11 8 7
Ar 11 9 6
Ar 10 9 7
Ar 10 8 8
Ar 11 8 9
Ar 11 9 8
Ar 10 9 9
Ar 10 8 10
Ar 11 8 11
Ar 11 9 10
Ar 10 9 11
Ar 10 8 12
Ar 11 8 13
Ar 11 9 12
Ar 10 9 13
Ar 10 10 0
Ar 11 10 1
Ar 11 11 0
Ar 10 11 1
Ar 10 10 2
Ar 11 10 3
Ar 11 11 2
Ar 10 11 3
Ar 10 10 4
Ar 11 10 5
Ar 11 11 4
Ar 10 11 5
Ar 10 10 6
Ar 11 10 7
Ar 11 11 6
Ar 10 11 7
Ar 10 10 8
Ar 11 10 9
Ar 11 11 8
Ar 10 11 9
Ar 10 10 10
Ar 11 10 11
Ar 11 11 10
Ar 10 11 11
Ar 10 10 12
Ar 11 10 13
Ar 11 11 12
Ar 10 11 13
Ar 10 12 0
Ar 11 12 1
Ar 11 13 0
Ar 10 13 1
Ar 10 12 2
Ar 11 12 3
Ar 11 13 2
Ar 10 13 3
Ar 10 12 4
Ar 11 12 5
Ar 11 13 4
Ar 10 13 5
Ar 10 12 6
Ar 11 12 7
Ar 11 13 6
Ar 10 13 7
Ar 10 12 8
Ar 11 12 9
Ar 11 13 8
Ar 10 13 9
Ar 10 12 10
Ar 11 12 11
Ar 11 13 10
Ar 10 13 11
Ar 10 12 12
Ar 11 12 13
Ar 11 13 12
Ar 10 13 13
Ar 12 0 0
Ar 13 0 1
Ar 13 1 0
Ar 12 1 1
Ar 12 0 2
Ar 13 0 3
Ar 13 1 2
Ar 12 1 3
Ar 12 0 4
Ar 13 0 5
Ar 13 1 4
Ar 12 1 5
Ar 12 0 6
Ar 13 0 7
Ar 13 1 6
Ar 12 1 7
Ar 12 0 8
Ar 13 0 9
Ar 13 1 8
Ar 12 1 9
Ar 12 0 10
Ar 13 0 11
Ar 13 1 10
Ar 12 1 11
Ar 12 0 12
Ar 13 0 13
Ar 13 1 12
Ar 12 1 13
Ar 12 2 0
Ar 13 2 1
Ar 13 3 0
Ar 12 3 1
Ar 12 2 2
Ar 13 2 3
Ar 13 3 2
Ar 12 3 3
Ar 12 2 4
Ar 13 2 5
Ar 13 3 4
Ar 12 3 5
Ar 12 2 6
Ar 13 2 7
Ar 13 3 6
Ar 12 3 7
Ar 12 2 8
Ar 13 2 9
Ar 13 3 8
Ar 12 3 9
Ar 12 2 10
Ar 13 2 11
Ar 13 3 10
Ar 12 3 11
Ar 12 2 12
Ar 13 2 13
Ar 13 3 12
Ar 12 3 13
Ar 12 4 0
Ar 13 4 1
Ar 13 5 0
Ar 12 5 1
Ar 12 4 2
Ar 13 4 3
Ar 13 5 2
Ar 12 5 3
Ar 12 4 4
Ar 13 4 5
Ar 13 5 4
Ar 12 5 5
Ar 12 4 6
Ar 13 4 7
Ar 13 5 6
Ar 12 5 7
Ar 12 4 8
Ar 13 4 9
Ar 13 5 8
Ar 12 5 9
Ar 12 4 10
Ar 13 4 11
Ar 13 5 10
Ar 12 5 11
Ar 12 4 12
Ar 13 4 13
Ar 13 5 12
Ar 12 5 13
Ar 12 6 0
Ar 13 6 1
Ar 13 7 0
Ar 12 7 1
Ar 12 6 2
Ar 13 6 3
Ar 13 7 2
Ar 12 7 3
Ar 12 6 4
Ar 13 6 5
Ar 13 7 4
Ar 12 7 5
Ar 12 6 6
Ar 13 6 7
Ar 13 7 6
Ar 12 7 7
Ar 12 6 8
Ar 13 6 9
Ar 13 7 8
Ar 12 7 9
Ar 12 6 10
Ar 13 6 11
Ar 13 7 10
Ar 12 7 11
Ar 12 6 12
Ar 13 6 13
Ar 13 7 12
Ar 12 7 13
Ar 12 8 0
Ar 13 8 1
Ar 13 9 0
Ar 12 9 1
Ar 12 8 2
Ar 13 8 3
Ar 13 9 2
Ar 12 9 3
Ar 12 8 4
Ar 13 8 5
Ar 13 9 4
Ar 12 9 5
Ar 12 8 6
Ar 13 8 7
Ar 13 9 6
Ar 12 9 7
Ar 12 8 8
Ar 13 8 9
Ar 13 9 8
Ar 12 9 9
Ar 12 8 10
Ar 13 8 11
Ar 13 9 10
Ar 12 9 11
Ar 12 8 12
Ar 13 8 13
Ar 13 9 12
Ar 12 9 13
Ar 12 10 0
Ar 13 10 1
Ar 13 11 0
Ar 12 11 1
Ar 12 10 2
Ar 13 10 3
Ar 13 11 2
Ar 12 11 3
Ar 12 10 4
Ar 13 10 5
Ar 13 11 4
Ar 12 11 5
Ar 12 10 6
Ar 13 10 7
Ar 13 11 6
Ar 12 11 7
Ar 12 10 8
Ar 13 10 9
Ar 13 11 8
Ar 12 11 9
Ar 12 10 10
Ar 13 10 11
Ar 13 11 10
Ar 12 11 11
Ar 12 10 12
Ar 13 10 13
Ar 13 11 12
Ar 12 11 13
Ar 12 12 0
Ar 13 12 1
Ar 13 13 0
Ar 12 13 1
Ar 12 12 2
Ar 13 12 3
Ar 13 13 2
Ar 12 13 3
Ar 12 12 4
Ar 13 12 5
Ar 13 13 4
Ar 12 13 5
Ar 12 12 6
Ar 13 12 7
Ar 13 13 6
Ar 12 13 7
Ar 12 12 8
Ar 13 12 9
Ar 13 13 8
Ar 12 13 9
Ar 12 12 10
Ar 13 12 11
Ar 13 13 10
Ar 12 13 11
Ar 12 12 12
Ar 13 12 13
Ar 13 13 12
Ar 12 13 13
