256
0.6 0.6 0.6
Ar 0 0 0
Ar 0.075 0 0.075
Ar 0.075 0.075 0
Ar 0 0.075 0.075
Ar 0 0 0.15
Ar 0.075 0 0.225
Ar 0.075 0.075 0.15
Ar 0 0.075 0.225
Ar 0 0 0.3
Ar 0.075 0 0.375
Ar 0.075 0.075 0.3
Ar 0 0.075 0.375
Ar 0 0 0.45
Ar 0.075 0 0.525
Ar 0.075 0.075 0.45
Ar 0 0.075 0.525
Ar 0 0.15 0
Ar 0.075 0.15 0.075
Ar 0.075 0.225 0
Ar 0 0.225 0.075
Ar 0 0.15 0.15
Ar 0.075 0.15 0.225
Ar 0.075 0.225 0.15
Ar 0 0.225 0.225
Ar 0 0.15 0.3
Ar 0.075 0.15 0.375
Ar 0.075 0.225 0.3
Ar 0 0.225 0.375
Ar 0 0.15 0.45
Ar 0.075 0.15 0.525
Ar 0.075 0.225 0.45
Ar 0 0.225 0.525
Ar 0 0.3 0
Ar 0.075 0.3 0.075
Ar 0.075 0.375 0
Ar 0 0.375 0.075
Ar 0 0.3 0.15
Ar 0.075 0.3 0.225
Ar 0.075 0.375 0.15
Ar 0 0.375 0.225
Ar 0 0.3 0.3
Ar 0.075 0.3 0.375
Ar 0.075 0.375 0.3
Ar 0 0.375 0.375
Ar 0 0.3 0.45
Ar 0.075 0.3 0.525
Ar 0.075 0.375 0.45
Ar 0 0.375 0.525
Ar 0 0.45 0
Ar 0.075 0.45 0.075
Ar 0.075 0.525 0
Ar 0 0.525 0.075
Ar 0 0.45 0.15
Ar 0.075 0.45 0.225
Ar 0.075 0.525 0.15
Ar 0 0.525 0.225
Ar 0 0.45 0.3
Ar 0.075 0.45 0.375
Ar 0.075 0.525 0.3
Ar 0 0.525 0.375
Ar 0 0.45 0.45
Ar 0.075 0.45 0.525
Ar 0.075 0.525 0.45
Ar 0 0.525 0.525
Ar 0.15 0 0
Ar 0.225 0 0.075
Ar 0.225 0.075 0
Ar 0.15 0.075 0.075
Ar 0.15 0 0.15
Ar 0.225 0 0.225
Ar 0.225 0.075 0.15
Ar 0.15 0.075 0.225
Ar 0.15 0 0.3
Ar 0.225 0 0.375
Ar 0.225 0.075 0.3
Ar 0.15 0.075 0.375
Ar 0.15 0 0.45
Ar 0.225 0 0.525
Ar 0.225 0.075 0.45
Ar 0.15 0.075 0.525
Ar 0.15 0.15 0
Ar 0.225 0.15 0.075
Ar 0.225 0.225 0
Ar 0.15 0.225 0.075
Ar 0.15 0.15 0.15
Ar 0.225 0.15 0.225
Ar 0.225 0.225 0.15
Ar 0.15 0.225 0.225
Ar 0.15 0.15 0.3
Ar 0.225 0.15 0.375
Ar 0.225 0.225 0.3
Ar 0.15 0.225 0.375
Ar 0.15 0.15 0.45
Ar 0.225 0.15 0.525
Ar 0.225 0.225 0.45
Ar 0.15 0.225 0.525
Ar 0.15 0.3 0
Ar 0.225 0.3 0.075
Ar 0.225 0.375 0
Ar 0.15 0.375 0.075
Ar 0.15 0.3 0.15
Ar 0.225 0.3 0.225
Ar 0.225 0.375 0.15
Ar 0.15 0.375 0.225
Ar 0.15 0.3 0.3
Ar 0.225 0.3 0.375
Ar 0.225 0.375 0.3
Ar 0.15 0.375 0.375
Ar 0.15 0.3 0.45
Ar 0.225 0.3 0.525
Ar 0.225 0.375 0.45
Ar 0.15 0.375 0.525
Ar 0.15 0.45 0
Ar 0.225 0.45 0.075
Ar 0.225 0.525 0
Ar 0.15 0.525 0.075
Ar 0.15 0.45 0.15
Ar 0.225 0.45 0.225
Ar 0.225 0.525 0.15
Ar 0.15 0.525 0.225
Ar 0.15 0.45 0.3
Ar 0.225 0.45 0.375
Ar 0.225 0.525 0.3
Ar 0.15 0.525 0.375
Ar 0.15 0.45 0.45
Ar 0.225 0.45 0.525
Ar 0.225 0.525 0.45
Ar 0.15 0.525 0.525
Ar 0.3 0 0
Ar 0.375 0 0.075
Ar 0.375 0.075 0
Ar 0.3 0.075 0.075
Ar 0.3 0 0.15
Ar 0.375 0 0.225
Ar 0.375 0.075 0.15
Ar 0.3 0.075 0.225
Ar 0.3 0 0.3
Ar 0.375 0 0.375
Ar 0.375 0.075 0.3
Ar 0.3 0.075 0.375
Ar 0.3 0 0.45
Ar 0.375 0 0.525
Ar 0.375 0.075 0.45
Ar 0.3 0.075 0.525
Ar 0.3 0.15 0
Ar 0.375 0.15 0.075
Ar 0.375 0.225 0
Ar 0.3 0.225 0.075
Ar 0.3 0.15 0.15
Ar 0.375 0.15 0.225
Ar 0.375 0.225 0.15
Ar 0.3 0.225 0.225
Ar 0.3 0.15 0.3
Ar 0.375 0.15 0.375
Ar 0.375 0.225 0.3
Ar 0.3 0.225 0.375
Ar 0.3 0.15 0.45
Ar 0.375 0.15 0.525
Ar 0.375 0.225 0.45
Ar 0.3 0.225 0.525
Ar 0.3 0.3 0
Ar 0.375 0.3 0.075
Ar 0.375 0.375 0
Ar 0.3 0.375 0.075
Ar 0.3 0.3 0.15
Ar 0.375 0.3 0.225
Ar 0.375 0.375 0.15
Ar 0.3 0.375 0.225
Ar 0.3 0.3 0.3
Ar 0.375 0.3 0.375
Ar 0.375 0.375 0.3
Ar 0.3 0.375 0.375
Ar 0.3 0.3 0.45
Ar 0.375 0.3 0.525
Ar 0.375 0.375 0.45
Ar 0.3 0.375 0.525
Ar 0.3 0.45 0
Ar 0.375 0.45 0.075
Ar 0.375 0.525 0
Ar 0.3 0.525 0.075
Ar 0.3 0.45 0.15
Ar 0.375 0.45 0.225
Ar 0.375 0.525 0.15
Ar 0.3 0.525 0.225
Ar 0.3 0.45 0.3
Ar 0.375 0.45 0.375
Ar 0.375 0.525 0.3
Ar 0.3 0.525 0.375
Ar 0.3 0.45 0.45
Ar 0.375 0.45 0.525
Ar 0.375 0.525 0.45
Ar 0.3 0.525 0.525
Ar 0.45 0 0
Ar 0.525 0 0.075
Ar 0.525 0.075 0
Ar 0.45 0.075 0.075
Ar 0.45 0 0.15
Ar 0.525 0 0.225
Ar 0.525 0.075 0.15
Ar 0.45 0.075 0.225
Ar 0.45 0 0.3
Ar 0.525 0 0.375
Ar 0.525 0.075 0.3
Ar 0.45 0.075 0.375
Ar 0.45 0 0.45
Ar 0.525 0 0.525
Ar 0.525 0.075 0.45
Ar 0.45 0.075 0.525
Ar 0.45 0.15 0
Ar 0.525 0.15 0.075
Ar 0.525 0.225 0
Ar 0.45 0.225 0.075
Ar 0.45 0.15 0.15
Ar 0.525 0.15 0.225
Ar 0.525 0.225 0.15
Ar 0.45 0.225 0.225
Ar 0.45 0.15 0.3
Ar 0.525 0.15 0.375
Ar 0.525 0.225 0.3
Ar 0.45 0.225 0.375
Ar 0.45 0.15 0.45
Ar 0.525 0.15 0.525
Ar 0.525 0.225 0.45
Ar 0.45 0.225 0.525
Ar 0.45 0.3 0
Ar 0.525 0.3 0.075
Ar 0.525 0.375 0
Ar 0.45 0.375 0.075
Ar 0.45 0.3 0.15
Ar 0.525 0.3 0.225
Ar 0.525 0.375 0.15
Ar 0.45 0.375 0.225
Ar 0.45 0.3 0.3
Ar 0.525 0.3 0.375
Ar 0.525 0.375 0.3
Ar 0.45 0.375 0.375
Ar 0.45 0.3 0.45
Ar 0.525 0.3 0.525
Ar 0.525 0.375 0.45
Ar 0.45 0.375 0.525
Ar 0.45 0.45 0
Ar 0.525 0.45 0.075
Ar 0.525 0.525 0
Ar 0.45 0.525 0.075
Ar 0.45 0.45 0.15
Ar 0.525 0.45 0.225
Ar 0.525 0.525 0.15
Ar 0.45 0.525 0.225
Ar 0.45 0.45 0.3
Ar 0.525 0.45 0.375
Ar 0.525 0.525 0.3
Ar 0.45 0.525 0.375
Ar 0.45 0.45 0.45
Ar 0.525 0.45 0.525
Ar 0.525 0.525 0.45
Ar 0.45 0.525 0.525
